tests/data/upgrade-models/p12uhs0_1247/p12udt1277/OpenDSS/Loads.dss
New Load.load_p12ulv1_1 conn=wye bus1=p12ulv1.1 kV=0.12 Vminpu=0.8 Vmaxpu=1.2 model=1 kW=6.044228536536975 kvar=1.36590600324157 Phases=1
New Load.load_p12ulv1_2 conn=wye bus1=p12ulv1.2 kV=0.12 Vminpu=0.8 Vmaxpu=1.2 model=1 kW=6.044228536536975 kvar=1.36590600324157 Phases=1
New Load.load_p12ulv131_1 conn=wye bus1=p12ulv131.1 kV=0.12 Vminpu=0.8 Vmaxpu=1.2 model=1 kW=4.232057012168481 kvar=0.2513317849586886 Phases=1
New Load.load_p12ulv131_2 conn=wye bus1=p12ulv131.2 kV=0.12 Vminpu=0.8 Vmaxpu=1.2 model=1 kW=4.232057012168481 kvar=0.2513317849586886 Phases=1
New Load.load_p12ulv898 conn=wye bus1=p12ulv898.1.2.3 kV=0.48 Vminpu=0.8 Vmaxpu=1.2 model=1 kW=19.208769577918048 kvar=4.487685457479747 Phases=3
New Load.load_p12ulv899_1 conn=wye bus1=p12ulv899.1 kV=0.12 Vminpu=0.8 Vmaxpu=1.2 model=1 kW=2.606959916668558 kvar=0.5550307077474157 Phases=1
New Load.load_p12ulv899_2 conn=wye bus1=p12ulv899.2 kV=0.12 Vminpu=0.8 Vmaxpu=1.2 model=1 kW=2.606959916668558 kvar=0.5550307077474157 Phases=1
New Load.load_p12ulv900_1 conn=wye bus1=p12ulv900.1 kV=0.12 Vminpu=0.8 Vmaxpu=1.2 model=1 kW=2.2427189664810845 kvar=0.6160146168872371 Phases=1
New Load.load_p12ulv900_2 conn=wye bus1=p12ulv900.2 kV=0.12 Vminpu=0.8 Vmaxpu=1.2 model=1 kW=2.2427189664810845 kvar=0.6160146168872371 Phases=1
New Load.load_p12ulv3714_1 conn=wye bus1=p12ulv3714.1 kV=0.12 Vminpu=0.8 Vmaxpu=1.2 model=1 kW=3.8249779386922644 kvar=0.12555321354723425 Phases=1
New Load.load_p12ulv3714_2 conn=wye bus1=p12ulv3714.2 kV=0.12 Vminpu=0.8 Vmaxpu=1.2 model=1 kW=3.8249779386922644 kvar=0.12555321354723425 Phases=1
New Load.load_p12ulv3715_1 conn=wye bus1=p12ulv3715.1 kV=0.12 Vminpu=0.8 Vmaxpu=1.2 model=1 kW=1.4786893203254163 kvar=0.3666592754227633 Phases=1
New Load.load_p12ulv3715_2 conn=wye bus1=p12ulv3715.2 kV=0.12 Vminpu=0.8 Vmaxpu=1.2 model=1 kW=1.4786893203254163 kvar=0.3666592754227633 Phases=1
New Load.load_p12ulv3717_1 conn=wye bus1=p12ulv3717.1 kV=0.12 Vminpu=0.8 Vmaxpu=1.2 model=1 kW=2.4037437915385973 kvar=0.5086059213404144 Phases=1
New Load.load_p12ulv3717_2 conn=wye bus1=p12ulv3717.2 kV=0.12 Vminpu=0.8 Vmaxpu=1.2 model=1 kW=2.4037437915385973 kvar=0.5086059213404144 Phases=1
New Load.load_p12ulv3718_1 conn=wye bus1=p12ulv3718.1 kV=0.12 Vminpu=0.8 Vmaxpu=1.2 model=1 kW=2.2737611706456167 kvar=0.6388909620023266 Phases=1
New Load.load_p12ulv3718_2 conn=wye bus1=p12ulv3718.2 kV=0.12 Vminpu=0.8 Vmaxpu=1.2 model=1 kW=2.2737611706456167 kvar=0.6388909620023266 Phases=1
New Load.load_p12ulv3719_1 conn=wye bus1=p12ulv3719.1 kV=0.12 Vminpu=0.8 Vmaxpu=1.2 model=1 kW=5.255322802252428 kvar=0.05676641710197242 Phases=1
New Load.load_p12ulv3719_2 conn=wye bus1=p12ulv3719.2 kV=0.12 Vminpu=0.8 Vmaxpu=1.2 model=1 kW=5.255322802252428 kvar=0.05676641710197242 Phases=1
New Load.load_p12ulv4471_1 conn=wye bus1=p12ulv4471.1 kV=0.12 Vminpu=0.8 Vmaxpu=1.2 model=1 kW=2.9149869461814677 kvar=0.5767582022429075 Phases=1
New Load.load_p12ulv4471_2 conn=wye bus1=p12ulv4471.2 kV=0.12 Vminpu=0.8 Vmaxpu=1.2 model=1 kW=2.9149869461814677 kvar=0.5767582022429075 Phases=1
New Load.load_p12ulv4482_1 conn=wye bus1=p12ulv4482.1 kV=0.12 Vminpu=0.8 Vmaxpu=1.2 model=1 kW=8.387383606162663 kvar=0.8848937505179886 Phases=1
New Load.load_p12ulv4482_2 conn=wye bus1=p12ulv4482.2 kV=0.12 Vminpu=0.8 Vmaxpu=1.2 model=1 kW=8.387383606162663 kvar=0.8848937505179886 Phases=1
New Load.load_p12ulv4515_1 conn=wye bus1=p12ulv4515.1 kV=0.12 Vminpu=0.8 Vmaxpu=1.2 model=1 kW=4.232057012168481 kvar=0.2513317849586886 Phases=1
New Load.load_p12ulv4515_2 conn=wye bus1=p12ulv4515.2 kV=0.12 Vminpu=0.8 Vmaxpu=1.2 model=1 kW=4.232057012168481 kvar=0.2513317849586886 Phases=1
New Load.load_p12ulv4522_1 conn=wye bus1=p12ulv4522.1 kV=0.12 Vminpu=0.8 Vmaxpu=1.2 model=1 kW=3.025577912376512 kvar=0.6479907691217454 Phases=1
New Load.load_p12ulv4522_2 conn=wye bus1=p12ulv4522.2 kV=0.12 Vminpu=0.8 Vmaxpu=1.2 model=1 kW=3.025577912376512 kvar=0.6479907691217454 Phases=1
New Load.load_p12ulv4534_1 conn=wye bus1=p12ulv4534.1 kV=0.12 Vminpu=0.8 Vmaxpu=1.2 model=1 kW=2.606959916668558 kvar=0.5550307077474157 Phases=1
New Load.load_p12ulv4534_2 conn=wye bus1=p12ulv4534.2 kV=0.12 Vminpu=0.8 Vmaxpu=1.2 model=1 kW=2.606959916668558 kvar=0.5550307077474157 Phases=1
New Load.load_p12ulv4536_1 conn=wye bus1=p12ulv4536.1 kV=0.12 Vminpu=0.8 Vmaxpu=1.2 model=1 kW=2.716910809895822 kvar=0.8232736368738947 Phases=1
New Load.load_p12ulv4536_2 conn=wye bus1=p12ulv4536.2 kV=0.12 Vminpu=0.8 Vmaxpu=1.2 model=1 kW=2.716910809895822 kvar=0.8232736368738947 Phases=1
New Load.load_p12ulv5451_1 conn=wye bus1=p12ulv5451.1 kV=0.12 Vminpu=0.8 Vmaxpu=1.2 model=1 kW=1.6323867069620042 kvar=0.40255171211713736 Phases=1
New Load.load_p12ulv5451_2 conn=wye bus1=p12ulv5451.2 kV=0.12 Vminpu=0.8 Vmaxpu=1.2 model=1 kW=1.6323867069620042 kvar=0.40255171211713736 Phases=1
New Load.load_p12ulv5457_1 conn=wye bus1=p12ulv5457.1 kV=0.12 Vminpu=0.8 Vmaxpu=1.2 model=1 kW=4.700176514580467 kvar=0.9439591622447027 Phases=1
New Load.load_p12ulv5457_2 conn=wye bus1=p12ulv5457.2 kV=0.12 Vminpu=0.8 Vmaxpu=1.2 model=1 kW=4.700176514580467 kvar=0.9439591622447027 Phases=1
New Load.load_p12ulv5474_1 conn=wye bus1=p12ulv5474.1 kV=0.12 Vminpu=0.8 Vmaxpu=1.2 model=1 kW=2.3415535522892696 kvar=0.7028882119915548 Phases=1
New Load.load_p12ulv5474_2 conn=wye bus1=p12ulv5474.2 kV=0.12 Vminpu=0.8 Vmaxpu=1.2 model=1 kW=2.3415535522892696 kvar=0.7028882119915548 Phases=1
New Load.load_p12ulv5478_1 conn=wye bus1=p12ulv5478.1 kV=0.12 Vminpu=0.8 Vmaxpu=1.2 model=1 kW=2.2427189664810845 kvar=0.6160146168872371 Phases=1
New Load.load_p12ulv5478_2 conn=wye bus1=p12ulv5478.2 kV=0.12 Vminpu=0.8 Vmaxpu=1.2 model=1 kW=2.2427189664810845 kvar=0.6160146168872371 Phases=1
New Load.load_p12ulv5483_1 conn=wye bus1=p12ulv5483.1 kV=0.12 Vminpu=0.8 Vmaxpu=1.2 model=1 kW=4.277687713775056 kvar=1.0620757586547218 Phases=1
New Load.load_p12ulv5483_2 conn=wye bus1=p12ulv5483.2 kV=0.12 Vminpu=0.8 Vmaxpu=1.2 model=1 kW=4.277687713775056 kvar=1.0620757586547218 Phases=1
New Load.load_p12ulv5487_1 conn=wye bus1=p12ulv5487.1 kV=0.12 Vminpu=0.8 Vmaxpu=1.2 model=1 kW=1.9522113739764493 kvar=0.5269598949238821 Phases=1
New Load.load_p12ulv5487_2 conn=wye bus1=p12ulv5487.2 kV=0.12 Vminpu=0.8 Vmaxpu=1.2 model=1 kW=1.9522113739764493 kvar=0.5269598949238821 Phases=1
New Load.load_p12ulv5495_1 conn=wye bus1=p12ulv5495.1 kV=0.12 Vminpu=0.8 Vmaxpu=1.2 model=1 kW=2.888692861590951 kvar=0.6547326596226201 Phases=1
New Load.load_p12ulv5495_2 conn=wye bus1=p12ulv5495.2 kV=0.12 Vminpu=0.8 Vmaxpu=1.2 model=1 kW=2.888692861590951 kvar=0.6547326596226201 Phases=1
New Load.load_p12ulv5503_1 conn=wye bus1=p12ulv5503.1 kV=0.12 Vminpu=0.8 Vmaxpu=1.2 model=1 kW=6.913528290396679 kvar=1.5943879289625724 Phases=1
New Load.load_p12ulv5503_2 conn=wye bus1=p12ulv5503.2 kV=0.12 Vminpu=0.8 Vmaxpu=1.2 model=1 kW=6.913528290396679 kvar=1.5943879289625724 Phases=1
New Load.load_p12ulv5504_1 conn=wye bus1=p12ulv5504.1 kV=0.12 Vminpu=0.8 Vmaxpu=1.2 model=1 kW=6.044228536536975 kvar=1.36590600324157 Phases=1
New Load.load_p12ulv5504_2 conn=wye bus1=p12ulv5504.2 kV=0.12 Vminpu=0.8 Vmaxpu=1.2 model=1 kW=6.044228536536975 kvar=1.36590600324157 Phases=1
New Load.load_p12ulv5512_1 conn=wye bus1=p12ulv5512.1 kV=0.12 Vminpu=0.8 Vmaxpu=1.2 model=1 kW=2.6277722044378486 kvar=0.6969686665668667 Phases=1
New Load.load_p12ulv5512_2 conn=wye bus1=p12ulv5512.2 kV=0.12 Vminpu=0.8 Vmaxpu=1.2 model=1 kW=2.6277722044378486 kvar=0.6969686665668667 Phases=1
New Load.load_p12ulv5521_1 conn=wye bus1=p12ulv5521.1 kV=0.12 Vminpu=0.8 Vmaxpu=1.2 model=1 kW=4.232057012168481 kvar=0.2513317849586886 Phases=1
New Load.load_p12ulv5521_2 conn=wye bus1=p12ulv5521.2 kV=0.12 Vminpu=0.8 Vmaxpu=1.2 model=1 kW=4.232057012168481 kvar=0.2513317849586886 Phases=1
New Load.load_p12ulv5524_1 conn=wye bus1=p12ulv5524.1 kV=0.12 Vminpu=0.8 Vmaxpu=1.2 model=1 kW=3.025577912376512 kvar=0.6479907691217454 Phases=1
New Load.load_p12ulv5524_2 conn=wye bus1=p12ulv5524.2 kV=0.12 Vminpu=0.8 Vmaxpu=1.2 model=1 kW=3.025577912376512 kvar=0.6479907691217454 Phases=1
New Load.load_p12ulv5527_1 conn=wye bus1=p12ulv5527.1 kV=0.12 Vminpu=0.8 Vmaxpu=1.2 model=1 kW=3.2659851154673674 kvar=0.7880475847724098 Phases=1
New Load.load_p12ulv5527_2 conn=wye bus1=p12ulv5527.2 kV=0.12 Vminpu=0.8 Vmaxpu=1.2 model=1 kW=3.2659851154673674 kvar=0.7880475847724098 Phases=1
New Load.load_p12ulv5532_1 conn=wye bus1=p12ulv5532.1 kV=0.12 Vminpu=0.8 Vmaxpu=1.2 model=1 kW=2.942829069048031 kvar=0.025560880160820944 Phases=1
New Load.load_p12ulv5532_2 conn=wye bus1=p12ulv5532.2 kV=0.12 Vminpu=0.8 Vmaxpu=1.2 model=1 kW=2.942829069048031 kvar=0.025560880160820944 Phases=1
New Load.load_p12ulv5600_1 conn=wye bus1=p12ulv5600.1 kV=0.12 Vminpu=0.8 Vmaxpu=1.2 model=1 kW=2.606959916668558 kvar=0.5550307077474157 Phases=1
New Load.load_p12ulv5600_2 conn=wye bus1=p12ulv5600.2 kV=0.12 Vminpu=0.8 Vmaxpu=1.2 model=1 kW=2.606959916668558 kvar=0.5550307077474157 Phases=1
New Load.load_p12ulv5604_1 conn=wye bus1=p12ulv5604.1 kV=0.12 Vminpu=0.8 Vmaxpu=1.2 model=1 kW=4.2413467203165425 kvar=0.37245396134061437 Phases=1
New Load.load_p12ulv5604_2 conn=wye bus1=p12ulv5604.2 kV=0.12 Vminpu=0.8 Vmaxpu=1.2 model=1 kW=4.2413467203165425 kvar=0.37245396134061437 Phases=1
New Load.load_p12ulv5607_1 conn=wye bus1=p12ulv5607.1 kV=0.12 Vminpu=0.8 Vmaxpu=1.2 model=1 kW=3.333425265663471 kvar=0.3442179031898818 Phases=1
New Load.load_p12ulv5607_2 conn=wye bus1=p12ulv5607.2 kV=0.12 Vminpu=0.8 Vmaxpu=1.2 model=1 kW=3.333425265663471 kvar=0.3442179031898818 Phases=1
New Load.load_p12ulv5612_1 conn=wye bus1=p12ulv5612.1 kV=0.12 Vminpu=0.8 Vmaxpu=1.2 model=1 kW=3.4326240486688357 kvar=0.8791975300623017 Phases=1
New Load.load_p12ulv5612_2 conn=wye bus1=p12ulv5612.2 kV=0.12 Vminpu=0.8 Vmaxpu=1.2 model=1 kW=3.4326240486688357 kvar=0.8791975300623017 Phases=1
New Load.load_p12ulv5613_1 conn=wye bus1=p12ulv5613.1 kV=0.12 Vminpu=0.8 Vmaxpu=1.2 model=1 kW=2.606959916668558 kvar=0.5550307077474157 Phases=1
New Load.load_p12ulv5613_2 conn=wye bus1=p12ulv5613.2 kV=0.12 Vminpu=0.8 Vmaxpu=1.2 model=1 kW=2.606959916668558 kvar=0.5550307077474157 Phases=1
New Load.load_p12ulv7592_1 conn=wye bus1=p12ulv7592.1 kV=0.12 Vminpu=0.8 Vmaxpu=1.2 model=1 kW=1.6323867069620042 kvar=0.40255171211713736 Phases=1
New Load.load_p12ulv7592_2 conn=wye bus1=p12ulv7592.2 kV=0.12 Vminpu=0.8 Vmaxpu=1.2 model=1 kW=1.6323867069620042 kvar=0.40255171211713736 Phases=1
New Load.load_p12ulv12030_1 conn=wye bus1=p12ulv12030.1 kV=0.12 Vminpu=0.8 Vmaxpu=1.2 model=1 kW=2.1674877724727226 kvar=0.5757691963629787 Phases=1
New Load.load_p12ulv12030_2 conn=wye bus1=p12ulv12030.2 kV=0.12 Vminpu=0.8 Vmaxpu=1.2 model=1 kW=2.1674877724727226 kvar=0.5757691963629787 Phases=1
New Load.load_p12ulv12037_1 conn=wye bus1=p12ulv12037.1 kV=0.12 Vminpu=0.8 Vmaxpu=1.2 model=1 kW=5.385772821478587 kvar=1.6009172710699977 Phases=1
New Load.load_p12ulv12037_2 conn=wye bus1=p12ulv12037.2 kV=0.12 Vminpu=0.8 Vmaxpu=1.2 model=1 kW=5.385772821478587 kvar=1.6009172710699977 Phases=1
New Load.load_p12ulv12589_1 conn=wye bus1=p12ulv12589.1 kV=0.12 Vminpu=0.8 Vmaxpu=1.2 model=1 kW=6.044228536536975 kvar=1.36590600324157 Phases=1
New Load.load_p12ulv12589_2 conn=wye bus1=p12ulv12589.2 kV=0.12 Vminpu=0.8 Vmaxpu=1.2 model=1 kW=6.044228536536975 kvar=1.36590600324157 Phases=1
New Load.load_p12ulv12590_1 conn=wye bus1=p12ulv12590.1 kV=0.12 Vminpu=0.8 Vmaxpu=1.2 model=1 kW=2.606959916668558 kvar=0.5550307077474157 Phases=1
New Load.load_p12ulv12590_2 conn=wye bus1=p12ulv12590.2 kV=0.12 Vminpu=0.8 Vmaxpu=1.2 model=1 kW=2.606959916668558 kvar=0.5550307077474157 Phases=1
New Load.load_p12ulv12593_1 conn=wye bus1=p12ulv12593.1 kV=0.12 Vminpu=0.8 Vmaxpu=1.2 model=1 kW=2.1342890945582846 kvar=0.10427649324668606 Phases=1
New Load.load_p12ulv12593_2 conn=wye bus1=p12ulv12593.2 kV=0.12 Vminpu=0.8 Vmaxpu=1.2 model=1 kW=2.1342890945582846 kvar=0.10427649324668606 Phases=1
New Load.load_p12ulv12594_1 conn=wye bus1=p12ulv12594.1 kV=0.12 Vminpu=0.8 Vmaxpu=1.2 model=1 kW=3.025577912376512 kvar=0.6479907691217454 Phases=1
New Load.load_p12ulv12594_2 conn=wye bus1=p12ulv12594.2 kV=0.12 Vminpu=0.8 Vmaxpu=1.2 model=1 kW=3.025577912376512 kvar=0.6479907691217454 Phases=1
New Load.load_p12ulv12602_1 conn=wye bus1=p12ulv12602.1 kV=0.12 Vminpu=0.8 Vmaxpu=1.2 model=1 kW=3.189766707780742 kvar=0.7894989280735729 Phases=1
New Load.load_p12ulv12602_2 conn=wye bus1=p12ulv12602.2 kV=0.12 Vminpu=0.8 Vmaxpu=1.2 model=1 kW=3.189766707780742 kvar=0.7894989280735729 Phases=1
New Load.load_p12ulv12846_1 conn=wye bus1=p12ulv12846.1 kV=0.12 Vminpu=0.8 Vmaxpu=1.2 model=1 kW=3.189766707780742 kvar=0.7894989280735729 Phases=1
New Load.load_p12ulv12846_2 conn=wye bus1=p12ulv12846.2 kV=0.12 Vminpu=0.8 Vmaxpu=1.2 model=1 kW=3.189766707780742 kvar=0.7894989280735729 Phases=1
New Load.load_p12ulv12854_1 conn=wye bus1=p12ulv12854.1 kV=0.12 Vminpu=0.8 Vmaxpu=1.2 model=1 kW=3.025577912376512 kvar=0.6479907691217454 Phases=1
New Load.load_p12ulv12854_2 conn=wye bus1=p12ulv12854.2 kV=0.12 Vminpu=0.8 Vmaxpu=1.2 model=1 kW=3.025577912376512 kvar=0.6479907691217454 Phases=1
New Load.load_p12ulv16360_1 conn=wye bus1=p12ulv16360.1 kV=0.12 Vminpu=0.8 Vmaxpu=1.2 model=1 kW=4.498981231799287 kvar=0.8881757893989677 Phases=1
New Load.load_p12ulv16360_2 conn=wye bus1=p12ulv16360.2 kV=0.12 Vminpu=0.8 Vmaxpu=1.2 model=1 kW=4.498981231799287 kvar=0.8881757893989677 Phases=1
New Load.load_p12ulv16381_1 conn=wye bus1=p12ulv16381.1 kV=0.12 Vminpu=0.8 Vmaxpu=1.2 model=1 kW=3.2570744264864886 kvar=0.02246974709606756 Phases=1
New Load.load_p12ulv16381_2 conn=wye bus1=p12ulv16381.2 kV=0.12 Vminpu=0.8 Vmaxpu=1.2 model=1 kW=3.2570744264864886 kvar=0.02246974709606756 Phases=1
New Load.load_p12ulv16385_1 conn=wye bus1=p12ulv16385.1 kV=0.12 Vminpu=0.8 Vmaxpu=1.2 model=1 kW=2.982001566238855 kvar=0.6624581034254765 Phases=1
New Load.load_p12ulv16385_2 conn=wye bus1=p12ulv16385.2 kV=0.12 Vminpu=0.8 Vmaxpu=1.2 model=1 kW=2.982001566238855 kvar=0.6624581034254765 Phases=1
New Load.load_p12ulv16400_1 conn=wye bus1=p12ulv16400.1 kV=0.12 Vminpu=0.8 Vmaxpu=1.2 model=1 kW=2.4425535477014515 kvar=0.6934264438496061 Phases=1
New Load.load_p12ulv16400_2 conn=wye bus1=p12ulv16400.2 kV=0.12 Vminpu=0.8 Vmaxpu=1.2 model=1 kW=2.4425535477014515 kvar=0.6934264438496061 Phases=1
New Load.load_p12ulv16423_1 conn=wye bus1=p12ulv16423.1 kV=0.12 Vminpu=0.8 Vmaxpu=1.2 model=1 kW=3.940833518865919 kvar=0.11979041159967556 Phases=1
New Load.load_p12ulv16423_2 conn=wye bus1=p12ulv16423.2 kV=0.12 Vminpu=0.8 Vmaxpu=1.2 model=1 kW=3.940833518865919 kvar=0.11979041159967556 Phases=1
New Load.load_p12ulv16429_1 conn=wye bus1=p12ulv16429.1 kV=0.12 Vminpu=0.8 Vmaxpu=1.2 model=1 kW=3.4545951148645555 kvar=0.267674553409051 Phases=1
New Load.load_p12ulv16429_2 conn=wye bus1=p12ulv16429.2 kV=0.12 Vminpu=0.8 Vmaxpu=1.2 model=1 kW=3.4545951148645555 kvar=0.267674553409051 Phases=1
New Load.load_p12ulv20600_1 conn=wye bus1=p12ulv20600.1 kV=0.12 Vminpu=0.8 Vmaxpu=1.2 model=1 kW=1.4038244377730775 kvar=0.30842299757959857 Phases=1
New Load.load_p12ulv20600_2 conn=wye bus1=p12ulv20600.2 kV=0.12 Vminpu=0.8 Vmaxpu=1.2 model=1 kW=1.4038244377730775 kvar=0.30842299757959857 Phases=1
New Load.load_p12ulv20601_1 conn=wye bus1=p12ulv20601.1 kV=0.12 Vminpu=0.8 Vmaxpu=1.2 model=1 kW=3.902887215219663 kvar=1.111231385342157 Phases=1
New Load.load_p12ulv20601_2 conn=wye bus1=p12ulv20601.2 kV=0.12 Vminpu=0.8 Vmaxpu=1.2 model=1 kW=3.902887215219663 kvar=1.111231385342157 Phases=1
New Load.load_p12ulv20603_1 conn=wye bus1=p12ulv20603.1 kV=0.12 Vminpu=0.8 Vmaxpu=1.2 model=1 kW=2.606959916668558 kvar=0.5550307077474157 Phases=1
New Load.load_p12ulv20603_2 conn=wye bus1=p12ulv20603.2 kV=0.12 Vminpu=0.8 Vmaxpu=1.2 model=1 kW=2.606959916668558 kvar=0.5550307077474157 Phases=1
New Load.load_p12ulv20604_1 conn=wye bus1=p12ulv20604.1 kV=0.12 Vminpu=0.8 Vmaxpu=1.2 model=1 kW=3.902887215219663 kvar=1.111231385342157 Phases=1
New Load.load_p12ulv20604_2 conn=wye bus1=p12ulv20604.2 kV=0.12 Vminpu=0.8 Vmaxpu=1.2 model=1 kW=3.902887215219663 kvar=1.111231385342157 Phases=1
New Load.load_p12ulv20606 conn=wye bus1=p12ulv20606.1.2.3 kV=0.48 Vminpu=0.8 Vmaxpu=1.2 model=1 kW=31.715469869710798 kvar=6.5692811326563865 Phases=3
New Load.load_p12ulv20609_1 conn=wye bus1=p12ulv20609.1 kV=0.12 Vminpu=0.8 Vmaxpu=1.2 model=1 kW=0.2601927423507288 kvar=0.13915962527089715 Phases=1
New Load.load_p12ulv20609_2 conn=wye bus1=p12ulv20609.2 kV=0.12 Vminpu=0.8 Vmaxpu=1.2 model=1 kW=0.2601927423507288 kvar=0.13915962527089715 Phases=1
New Load.load_p12ulv20610_1 conn=wye bus1=p12ulv20610.1 kV=0.12 Vminpu=0.8 Vmaxpu=1.2 model=1 kW=2.7146312183983485 kvar=0.11264482158049681 Phases=1
New Load.load_p12ulv20610_2 conn=wye bus1=p12ulv20610.2 kV=0.12 Vminpu=0.8 Vmaxpu=1.2 model=1 kW=2.7146312183983485 kvar=0.11264482158049681 Phases=1
New Load.load_p12ulv20612_1 conn=wye bus1=p12ulv20612.1 kV=0.12 Vminpu=0.8 Vmaxpu=1.2 model=1 kW=3.4326240486688357 kvar=0.8791975300623017 Phases=1
New Load.load_p12ulv20612_2 conn=wye bus1=p12ulv20612.2 kV=0.12 Vminpu=0.8 Vmaxpu=1.2 model=1 kW=3.4326240486688357 kvar=0.8791975300623017 Phases=1
New Load.load_p12ulv20613_1 conn=wye bus1=p12ulv20613.1 kV=0.12 Vminpu=0.8 Vmaxpu=1.2 model=1 kW=2.6703947852884853 kvar=0.8326886655385245 Phases=1
New Load.load_p12ulv20613_2 conn=wye bus1=p12ulv20613.2 kV=0.12 Vminpu=0.8 Vmaxpu=1.2 model=1 kW=2.6703947852884853 kvar=0.8326886655385245 Phases=1
New Load.load_p12ulv20614_1 conn=wye bus1=p12ulv20614.1 kV=0.12 Vminpu=0.8 Vmaxpu=1.2 model=1 kW=1.1598695467105553 kvar=0.43656497314037657 Phases=1
New Load.load_p12ulv20614_2 conn=wye bus1=p12ulv20614.2 kV=0.12 Vminpu=0.8 Vmaxpu=1.2 model=1 kW=1.1598695467105553 kvar=0.43656497314037657 Phases=1
New Load.load_p12ulv20615_1 conn=wye bus1=p12ulv20615.1 kV=0.12 Vminpu=0.8 Vmaxpu=1.2 model=1 kW=0.772705532239135 kvar=0.33568286747913667 Phases=1
New Load.load_p12ulv20615_2 conn=wye bus1=p12ulv20615.2 kV=0.12 Vminpu=0.8 Vmaxpu=1.2 model=1 kW=0.772705532239135 kvar=0.33568286747913667 Phases=1
New Load.load_p12ulv20617_1 conn=wye bus1=p12ulv20617.1 kV=0.12 Vminpu=0.8 Vmaxpu=1.2 model=1 kW=0.5627979863862136 kvar=0.22866575648643567 Phases=1
New Load.load_p12ulv20617_2 conn=wye bus1=p12ulv20617.2 kV=0.12 Vminpu=0.8 Vmaxpu=1.2 model=1 kW=0.5627979863862136 kvar=0.22866575648643567 Phases=1
New Load.load_p12ulv20618_1 conn=wye bus1=p12ulv20618.1 kV=0.12 Vminpu=0.8 Vmaxpu=1.2 model=1 kW=2.0430156654611635 kvar=0.5469234214838883 Phases=1
New Load.load_p12ulv20618_2 conn=wye bus1=p12ulv20618.2 kV=0.12 Vminpu=0.8 Vmaxpu=1.2 model=1 kW=2.0430156654611635 kvar=0.5469234214838883 Phases=1
New Load.load_p12ulv20619_1 conn=wye bus1=p12ulv20619.1 kV=0.12 Vminpu=0.8 Vmaxpu=1.2 model=1 kW=1.0945480119095703 kvar=0.3705812758221866 Phases=1
New Load.load_p12ulv20619_2 conn=wye bus1=p12ulv20619.2 kV=0.12 Vminpu=0.8 Vmaxpu=1.2 model=1 kW=1.0945480119095703 kvar=0.3705812758221866 Phases=1
New Load.load_p12ulv20620_1 conn=wye bus1=p12ulv20620.1 kV=0.12 Vminpu=0.8 Vmaxpu=1.2 model=1 kW=3.7955530160091877 kvar=0.9939393246787002 Phases=1
New Load.load_p12ulv20620_2 conn=wye bus1=p12ulv20620.2 kV=0.12 Vminpu=0.8 Vmaxpu=1.2 model=1 kW=3.7955530160091877 kvar=0.9939393246787002 Phases=1
New Load.load_p12ulv20621_1 conn=wye bus1=p12ulv20621.1 kV=0.12 Vminpu=0.8 Vmaxpu=1.2 model=1 kW=4.232057012168481 kvar=0.2513317849586886 Phases=1
New Load.load_p12ulv20621_2 conn=wye bus1=p12ulv20621.2 kV=0.12 Vminpu=0.8 Vmaxpu=1.2 model=1 kW=4.232057012168481 kvar=0.2513317849586886 Phases=1
New Load.load_p12ulv20623_1 conn=wye bus1=p12ulv20623.1 kV=0.12 Vminpu=0.8 Vmaxpu=1.2 model=1 kW=2.606959916668558 kvar=0.5550307077474157 Phases=1
New Load.load_p12ulv20623_2 conn=wye bus1=p12ulv20623.2 kV=0.12 Vminpu=0.8 Vmaxpu=1.2 model=1 kW=2.606959916668558 kvar=0.5550307077474157 Phases=1
New Load.load_p12ulv20624_1 conn=wye bus1=p12ulv20624.1 kV=0.12 Vminpu=0.8 Vmaxpu=1.2 model=1 kW=2.606959916668558 kvar=0.5550307077474157 Phases=1
New Load.load_p12ulv20624_2 conn=wye bus1=p12ulv20624.2 kV=0.12 Vminpu=0.8 Vmaxpu=1.2 model=1 kW=2.606959916668558 kvar=0.5550307077474157 Phases=1
New Load.load_p12ulv20628_1 conn=wye bus1=p12ulv20628.1 kV=0.12 Vminpu=0.8 Vmaxpu=1.2 model=1 kW=3.6219955703671194 kvar=0.8101366516846996 Phases=1
New Load.load_p12ulv20628_2 conn=wye bus1=p12ulv20628.2 kV=0.12 Vminpu=0.8 Vmaxpu=1.2 model=1 kW=3.6219955703671194 kvar=0.8101366516846996 Phases=1
New Load.load_p12ulv20629_1 conn=wye bus1=p12ulv20629.1 kV=0.12 Vminpu=0.8 Vmaxpu=1.2 model=1 kW=2.501244965400895 kvar=0.7307193315393806 Phases=1
New Load.load_p12ulv20629_2 conn=wye bus1=p12ulv20629.2 kV=0.12 Vminpu=0.8 Vmaxpu=1.2 model=1 kW=2.501244965400895 kvar=0.7307193315393806 Phases=1
New Load.load_p12ulv20630_1 conn=wye bus1=p12ulv20630.1 kV=0.12 Vminpu=0.8 Vmaxpu=1.2 model=1 kW=0.10003649061599994 kvar=0.0702161185282728 Phases=1
New Load.load_p12ulv20630_2 conn=wye bus1=p12ulv20630.2 kV=0.12 Vminpu=0.8 Vmaxpu=1.2 model=1 kW=0.10003649061599994 kvar=0.0702161185282728 Phases=1
New Load.load_p12ulv20631_1 conn=wye bus1=p12ulv20631.1 kV=0.12 Vminpu=0.8 Vmaxpu=1.2 model=1 kW=1.344029820897165 kvar=0.5082087898616895 Phases=1
New Load.load_p12ulv20631_2 conn=wye bus1=p12ulv20631.2 kV=0.12 Vminpu=0.8 Vmaxpu=1.2 model=1 kW=1.344029820897165 kvar=0.5082087898616895 Phases=1
New Load.load_p12ulv20633_1 conn=wye bus1=p12ulv20633.1 kV=0.12 Vminpu=0.8 Vmaxpu=1.2 model=1 kW=3.902887215219663 kvar=1.111231385342157 Phases=1
New Load.load_p12ulv20633_2 conn=wye bus1=p12ulv20633.2 kV=0.12 Vminpu=0.8 Vmaxpu=1.2 model=1 kW=3.902887215219663 kvar=1.111231385342157 Phases=1
New Load.load_p12ulv20634_1 conn=wye bus1=p12ulv20634.1 kV=0.12 Vminpu=0.8 Vmaxpu=1.2 model=1 kW=0.9518333270985427 kvar=0.3340330193202704 Phases=1
New Load.load_p12ulv20634_2 conn=wye bus1=p12ulv20634.2 kV=0.12 Vminpu=0.8 Vmaxpu=1.2 model=1 kW=0.9518333270985427 kvar=0.3340330193202704 Phases=1
New Load.load_p12ulv20635_1 conn=wye bus1=p12ulv20635.1 kV=0.12 Vminpu=0.8 Vmaxpu=1.2 model=1 kW=2.3268329182243828 kvar=0.6606620655388332 Phases=1
New Load.load_p12ulv20635_2 conn=wye bus1=p12ulv20635.2 kV=0.12 Vminpu=0.8 Vmaxpu=1.2 model=1 kW=2.3268329182243828 kvar=0.6606620655388332 Phases=1
New Load.load_p12ulv20637_1 conn=wye bus1=p12ulv20637.1 kV=0.12 Vminpu=0.8 Vmaxpu=1.2 model=1 kW=6.044228536536975 kvar=1.36590600324157 Phases=1
New Load.load_p12ulv20637_2 conn=wye bus1=p12ulv20637.2 kV=0.12 Vminpu=0.8 Vmaxpu=1.2 model=1 kW=6.044228536536975 kvar=1.36590600324157 Phases=1
New Load.load_p12ulv20638_1 conn=wye bus1=p12ulv20638.1 kV=0.12 Vminpu=0.8 Vmaxpu=1.2 model=1 kW=3.6849315736247465 kvar=0.26435587266661026 Phases=1
New Load.load_p12ulv20638_2 conn=wye bus1=p12ulv20638.2 kV=0.12 Vminpu=0.8 Vmaxpu=1.2 model=1 kW=3.6849315736247465 kvar=0.26435587266661026 Phases=1
New Load.load_p12ulv20639_1 conn=wye bus1=p12ulv20639.1 kV=0.12 Vminpu=0.8 Vmaxpu=1.2 model=1 kW=2.297832728168154 kvar=0.6109723215697453 Phases=1
New Load.load_p12ulv20639_2 conn=wye bus1=p12ulv20639.2 kV=0.12 Vminpu=0.8 Vmaxpu=1.2 model=1 kW=2.297832728168154 kvar=0.6109723215697453 Phases=1
New Load.load_p12ulv20642_1 conn=wye bus1=p12ulv20642.1 kV=0.12 Vminpu=0.8 Vmaxpu=1.2 model=1 kW=0.5229589832640044 kvar=0.3359880712066463 Phases=1
New Load.load_p12ulv20642_2 conn=wye bus1=p12ulv20642.2 kV=0.12 Vminpu=0.8 Vmaxpu=1.2 model=1 kW=0.5229589832640044 kvar=0.3359880712066463 Phases=1
New Load.load_p12ulv24696_1 conn=wye bus1=p12ulv24696.1 kV=0.12 Vminpu=0.8 Vmaxpu=1.2 model=1 kW=3.025577912376512 kvar=0.6479907691217454 Phases=1
New Load.load_p12ulv24696_2 conn=wye bus1=p12ulv24696.2 kV=0.12 Vminpu=0.8 Vmaxpu=1.2 model=1 kW=3.025577912376512 kvar=0.6479907691217454 Phases=1
New Load.load_p12ulv24707_1 conn=wye bus1=p12ulv24707.1 kV=0.12 Vminpu=0.8 Vmaxpu=1.2 model=1 kW=3.0772156037646567 kvar=0.01984596164170695 Phases=1
New Load.load_p12ulv24707_2 conn=wye bus1=p12ulv24707.2 kV=0.12 Vminpu=0.8 Vmaxpu=1.2 model=1 kW=3.0772156037646567 kvar=0.01984596164170695 Phases=1
New Load.load_p12ulv24714_1 conn=wye bus1=p12ulv24714.1 kV=0.12 Vminpu=0.8 Vmaxpu=1.2 model=1 kW=2.207629741893862 kvar=0.47552489685620736 Phases=1
New Load.load_p12ulv24714_2 conn=wye bus1=p12ulv24714.2 kV=0.12 Vminpu=0.8 Vmaxpu=1.2 model=1 kW=2.207629741893862 kvar=0.47552489685620736 Phases=1
New Load.load_p12ulv24717_1 conn=wye bus1=p12ulv24717.1 kV=0.12 Vminpu=0.8 Vmaxpu=1.2 model=1 kW=2.2370181650987906 kvar=0.5806603708512078 Phases=1
New Load.load_p12ulv24717_2 conn=wye bus1=p12ulv24717.2 kV=0.12 Vminpu=0.8 Vmaxpu=1.2 model=1 kW=2.2370181650987906 kvar=0.5806603708512078 Phases=1
New Load.load_p12ulv24726_1 conn=wye bus1=p12ulv24726.1 kV=0.12 Vminpu=0.8 Vmaxpu=1.2 model=1 kW=2.419059308693737 kvar=0.6911648224012601 Phases=1
New Load.load_p12ulv24726_2 conn=wye bus1=p12ulv24726.2 kV=0.12 Vminpu=0.8 Vmaxpu=1.2 model=1 kW=2.419059308693737 kvar=0.6911648224012601 Phases=1
New Load.load_p12ulv24751_1 conn=wye bus1=p12ulv24751.1 kV=0.12 Vminpu=0.8 Vmaxpu=1.2 model=1 kW=2.634382378818398 kvar=0.7408111725995792 Phases=1
New Load.load_p12ulv24751_2 conn=wye bus1=p12ulv24751.2 kV=0.12 Vminpu=0.8 Vmaxpu=1.2 model=1 kW=2.634382378818398 kvar=0.7408111725995792 Phases=1
New Load.load_p12ulv24772_1 conn=wye bus1=p12ulv24772.1 kV=0.12 Vminpu=0.8 Vmaxpu=1.2 model=1 kW=1.839175601618853 kvar=0.4557221316666175 Phases=1
New Load.load_p12ulv24772_2 conn=wye bus1=p12ulv24772.2 kV=0.12 Vminpu=0.8 Vmaxpu=1.2 model=1 kW=1.839175601618853 kvar=0.4557221316666175 Phases=1
New Load.load_p12ulv24788_1 conn=wye bus1=p12ulv24788.1 kV=0.12 Vminpu=0.8 Vmaxpu=1.2 model=1 kW=2.9815403167210675 kvar=0.24442739866112323 Phases=1
New Load.load_p12ulv24788_2 conn=wye bus1=p12ulv24788.2 kV=0.12 Vminpu=0.8 Vmaxpu=1.2 model=1 kW=2.9815403167210675 kvar=0.24442739866112323 Phases=1
New Load.load_p12ulv24790_1 conn=wye bus1=p12ulv24790.1 kV=0.12 Vminpu=0.8 Vmaxpu=1.2 model=1 kW=2.4146763306383106 kvar=0.6793582693447386 Phases=1
New Load.load_p12ulv24790_2 conn=wye bus1=p12ulv24790.2 kV=0.12 Vminpu=0.8 Vmaxpu=1.2 model=1 kW=2.4146763306383106 kvar=0.6793582693447386 Phases=1
New Load.load_p12ulv24840_1 conn=wye bus1=p12ulv24840.1 kV=0.12 Vminpu=0.8 Vmaxpu=1.2 model=1 kW=2.4614642004392735 kvar=0.694642854224167 Phases=1
New Load.load_p12ulv24840_2 conn=wye bus1=p12ulv24840.2 kV=0.12 Vminpu=0.8 Vmaxpu=1.2 model=1 kW=2.4614642004392735 kvar=0.694642854224167 Phases=1
New Load.load_p12ulv24869_1 conn=wye bus1=p12ulv24869.1 kV=0.12 Vminpu=0.8 Vmaxpu=1.2 model=1 kW=3.025577912376512 kvar=0.6479907691217454 Phases=1
New Load.load_p12ulv24869_2 conn=wye bus1=p12ulv24869.2 kV=0.12 Vminpu=0.8 Vmaxpu=1.2 model=1 kW=3.025577912376512 kvar=0.6479907691217454 Phases=1
New Load.load_p12ulv25381_1 conn=wye bus1=p12ulv25381.1 kV=0.12 Vminpu=0.8 Vmaxpu=1.2 model=1 kW=1.3291114143750342 kvar=0.7013742127556503 Phases=1
New Load.load_p12ulv25381_2 conn=wye bus1=p12ulv25381.2 kV=0.12 Vminpu=0.8 Vmaxpu=1.2 model=1 kW=1.3291114143750342 kvar=0.7013742127556503 Phases=1
New Load.load_p12ulv25483 conn=wye bus1=p12ulv25483.1.2.3 kV=0.48 Vminpu=0.8 Vmaxpu=1.2 model=1 kW=24.556756822322196 kvar=6.150888417501412 Phases=3
New Load.load_p12ulv25495_1 conn=wye bus1=p12ulv25495.1 kV=0.12 Vminpu=0.8 Vmaxpu=1.2 model=1 kW=6.044228536536975 kvar=1.36590600324157 Phases=1
New Load.load_p12ulv25495_2 conn=wye bus1=p12ulv25495.2 kV=0.12 Vminpu=0.8 Vmaxpu=1.2 model=1 kW=6.044228536536975 kvar=1.36590600324157 Phases=1
New Load.load_p12ulv25533_1 conn=wye bus1=p12ulv25533.1 kV=0.12 Vminpu=0.8 Vmaxpu=1.2 model=1 kW=2.0491915565570302 kvar=1.1506537762556939 Phases=1
New Load.load_p12ulv25533_2 conn=wye bus1=p12ulv25533.2 kV=0.12 Vminpu=0.8 Vmaxpu=1.2 model=1 kW=2.0491915565570302 kvar=1.1506537762556939 Phases=1
New Load.load_p12ulv25604 conn=wye bus1=p12ulv25604.1.2.3 kV=0.48 Vminpu=0.8 Vmaxpu=1.2 model=1 kW=17.253921418256052 kvar=3.8788946973254115 Phases=3
New Load.load_p12ulv25832_1 conn=wye bus1=p12ulv25832.1 kV=0.12 Vminpu=0.8 Vmaxpu=1.2 model=1 kW=2.6703947852884853 kvar=0.8326886655385245 Phases=1
New Load.load_p12ulv25832_2 conn=wye bus1=p12ulv25832.2 kV=0.12 Vminpu=0.8 Vmaxpu=1.2 model=1 kW=2.6703947852884853 kvar=0.8326886655385245 Phases=1
New Load.load_p12ulv25846_1 conn=wye bus1=p12ulv25846.1 kV=0.12 Vminpu=0.8 Vmaxpu=1.2 model=1 kW=3.902887215219663 kvar=1.111231385342157 Phases=1
New Load.load_p12ulv25846_2 conn=wye bus1=p12ulv25846.2 kV=0.12 Vminpu=0.8 Vmaxpu=1.2 model=1 kW=3.902887215219663 kvar=1.111231385342157 Phases=1
New Load.load_p12ulv25889_1 conn=wye bus1=p12ulv25889.1 kV=0.12 Vminpu=0.8 Vmaxpu=1.2 model=1 kW=5.385772821478587 kvar=1.6009172710699977 Phases=1
New Load.load_p12ulv25889_2 conn=wye bus1=p12ulv25889.2 kV=0.12 Vminpu=0.8 Vmaxpu=1.2 model=1 kW=5.385772821478587 kvar=1.6009172710699977 Phases=1
New Load.load_p12ulv33446_1 conn=wye bus1=p12ulv33446.1 kV=0.12 Vminpu=0.8 Vmaxpu=1.2 model=1 kW=2.308477864741614 kvar=0.6307751830484037 Phases=1
New Load.load_p12ulv33446_2 conn=wye bus1=p12ulv33446.2 kV=0.12 Vminpu=0.8 Vmaxpu=1.2 model=1 kW=2.308477864741614 kvar=0.6307751830484037 Phases=1
New Load.load_p12ulv33447_1 conn=wye bus1=p12ulv33447.1 kV=0.12 Vminpu=0.8 Vmaxpu=1.2 model=1 kW=4.303683190658094 kvar=0.2594077076814056 Phases=1
New Load.load_p12ulv33447_2 conn=wye bus1=p12ulv33447.2 kV=0.12 Vminpu=0.8 Vmaxpu=1.2 model=1 kW=4.303683190658094 kvar=0.2594077076814056 Phases=1
New Load.load_p12ulv33453_1 conn=wye bus1=p12ulv33453.1 kV=0.12 Vminpu=0.8 Vmaxpu=1.2 model=1 kW=2.606959916668558 kvar=0.5550307077474157 Phases=1
New Load.load_p12ulv33453_2 conn=wye bus1=p12ulv33453.2 kV=0.12 Vminpu=0.8 Vmaxpu=1.2 model=1 kW=2.606959916668558 kvar=0.5550307077474157 Phases=1
New Load.load_p12ulv33461_1 conn=wye bus1=p12ulv33461.1 kV=0.12 Vminpu=0.8 Vmaxpu=1.2 model=1 kW=2.716910809895822 kvar=0.8232736368738947 Phases=1
New Load.load_p12ulv33461_2 conn=wye bus1=p12ulv33461.2 kV=0.12 Vminpu=0.8 Vmaxpu=1.2 model=1 kW=2.716910809895822 kvar=0.8232736368738947 Phases=1
New Load.load_p12ulv33472_1 conn=wye bus1=p12ulv33472.1 kV=0.12 Vminpu=0.8 Vmaxpu=1.2 model=1 kW=2.606959916668558 kvar=0.5550307077474157 Phases=1
New Load.load_p12ulv33472_2 conn=wye bus1=p12ulv33472.2 kV=0.12 Vminpu=0.8 Vmaxpu=1.2 model=1 kW=2.606959916668558 kvar=0.5550307077474157 Phases=1
New Load.load_p12ulv33475_1 conn=wye bus1=p12ulv33475.1 kV=0.12 Vminpu=0.8 Vmaxpu=1.2 model=1 kW=3.634163367483061 kvar=0.8632951640918745 Phases=1
New Load.load_p12ulv33475_2 conn=wye bus1=p12ulv33475.2 kV=0.12 Vminpu=0.8 Vmaxpu=1.2 model=1 kW=3.634163367483061 kvar=0.8632951640918745 Phases=1
New Load.load_p12ulv33481_1 conn=wye bus1=p12ulv33481.1 kV=0.12 Vminpu=0.8 Vmaxpu=1.2 model=1 kW=1.8541693916325792 kvar=0.4412333902736323 Phases=1
New Load.load_p12ulv33481_2 conn=wye bus1=p12ulv33481.2 kV=0.12 Vminpu=0.8 Vmaxpu=1.2 model=1 kW=1.8541693916325792 kvar=0.4412333902736323 Phases=1
New Load.load_p12ulv33504_1 conn=wye bus1=p12ulv33504.1 kV=0.12 Vminpu=0.8 Vmaxpu=1.2 model=1 kW=2.1661051467831762 kvar=0.6317161905393411 Phases=1
New Load.load_p12ulv33504_2 conn=wye bus1=p12ulv33504.2 kV=0.12 Vminpu=0.8 Vmaxpu=1.2 model=1 kW=2.1661051467831762 kvar=0.6317161905393411 Phases=1
New Load.load_p12ulv33526_1 conn=wye bus1=p12ulv33526.1 kV=0.12 Vminpu=0.8 Vmaxpu=1.2 model=1 kW=2.7935386970404408 kvar=0.018922139033990728 Phases=1
New Load.load_p12ulv33526_2 conn=wye bus1=p12ulv33526.2 kV=0.12 Vminpu=0.8 Vmaxpu=1.2 model=1 kW=2.7935386970404408 kvar=0.018922139033990728 Phases=1
New Load.load_p12ulv33545_1 conn=wye bus1=p12ulv33545.1 kV=0.12 Vminpu=0.8 Vmaxpu=1.2 model=1 kW=3.025577912376512 kvar=0.6479907691217454 Phases=1
New Load.load_p12ulv33545_2 conn=wye bus1=p12ulv33545.2 kV=0.12 Vminpu=0.8 Vmaxpu=1.2 model=1 kW=3.025577912376512 kvar=0.6479907691217454 Phases=1
New Load.load_p12ulv34300_1 conn=wye bus1=p12ulv34300.1 kV=0.12 Vminpu=0.8 Vmaxpu=1.2 model=1 kW=2.3117245659719456 kvar=0.9291092930017714 Phases=1
New Load.load_p12ulv34300_2 conn=wye bus1=p12ulv34300.2 kV=0.12 Vminpu=0.8 Vmaxpu=1.2 model=1 kW=2.3117245659719456 kvar=0.9291092930017714 Phases=1
New Load.load_p12ulv36386_1 conn=wye bus1=p12ulv36386.1 kV=0.12 Vminpu=0.8 Vmaxpu=1.2 model=1 kW=3.5456145497041462 kvar=0.846303607370709 Phases=1
New Load.load_p12ulv36386_2 conn=wye bus1=p12ulv36386.2 kV=0.12 Vminpu=0.8 Vmaxpu=1.2 model=1 kW=3.5456145497041462 kvar=0.846303607370709 Phases=1
New Load.load_p12ulv36473_1 conn=wye bus1=p12ulv36473.1 kV=0.12 Vminpu=0.8 Vmaxpu=1.2 model=1 kW=7.041974617115831 kvar=1.6837749611591681 Phases=1
New Load.load_p12ulv36473_2 conn=wye bus1=p12ulv36473.2 kV=0.12 Vminpu=0.8 Vmaxpu=1.2 model=1 kW=7.041974617115831 kvar=1.6837749611591681 Phases=1
New Load.load_p12ulv36499_1 conn=wye bus1=p12ulv36499.1 kV=0.12 Vminpu=0.8 Vmaxpu=1.2 model=1 kW=6.867492538342698 kvar=1.2716334989385836 Phases=1
New Load.load_p12ulv36499_2 conn=wye bus1=p12ulv36499.2 kV=0.12 Vminpu=0.8 Vmaxpu=1.2 model=1 kW=6.867492538342698 kvar=1.2716334989385836 Phases=1
New Load.load_p12ulv36512_1 conn=wye bus1=p12ulv36512.1 kV=0.12 Vminpu=0.8 Vmaxpu=1.2 model=1 kW=2.883515343353138 kvar=0.18989418857380705 Phases=1
New Load.load_p12ulv36512_2 conn=wye bus1=p12ulv36512.2 kV=0.12 Vminpu=0.8 Vmaxpu=1.2 model=1 kW=2.883515343353138 kvar=0.18989418857380705 Phases=1
New Load.load_p12ulv36515_1 conn=wye bus1=p12ulv36515.1 kV=0.12 Vminpu=0.8 Vmaxpu=1.2 model=1 kW=0.6155541211188646 kvar=0.3901757582026717 Phases=1
New Load.load_p12ulv36515_2 conn=wye bus1=p12ulv36515.2 kV=0.12 Vminpu=0.8 Vmaxpu=1.2 model=1 kW=0.6155541211188646 kvar=0.3901757582026717 Phases=1
New Load.load_p12ulv36516_1 conn=wye bus1=p12ulv36516.1 kV=0.12 Vminpu=0.8 Vmaxpu=1.2 model=1 kW=1.1171174732694102 kvar=0.5510818032436708 Phases=1
New Load.load_p12ulv36516_2 conn=wye bus1=p12ulv36516.2 kV=0.12 Vminpu=0.8 Vmaxpu=1.2 model=1 kW=1.1171174732694102 kvar=0.5510818032436708 Phases=1
New Load.load_p12ulv36642_1 conn=wye bus1=p12ulv36642.1 kV=0.12 Vminpu=0.8 Vmaxpu=1.2 model=1 kW=6.723781779101187 kvar=2.360611301631528 Phases=1
New Load.load_p12ulv36642_2 conn=wye bus1=p12ulv36642.2 kV=0.12 Vminpu=0.8 Vmaxpu=1.2 model=1 kW=6.723781779101187 kvar=2.360611301631528 Phases=1
New Load.load_p12ulv36658_1 conn=wye bus1=p12ulv36658.1 kV=0.12 Vminpu=0.8 Vmaxpu=1.2 model=1 kW=0.9518333270985427 kvar=0.3340330193202704 Phases=1
New Load.load_p12ulv36658_2 conn=wye bus1=p12ulv36658.2 kV=0.12 Vminpu=0.8 Vmaxpu=1.2 model=1 kW=0.9518333270985427 kvar=0.3340330193202704 Phases=1
New Load.load_p12ulv36659_1 conn=wye bus1=p12ulv36659.1 kV=0.12 Vminpu=0.8 Vmaxpu=1.2 model=1 kW=5.57504743922245 kvar=1.3113907829907268 Phases=1
New Load.load_p12ulv36659_2 conn=wye bus1=p12ulv36659.2 kV=0.12 Vminpu=0.8 Vmaxpu=1.2 model=1 kW=5.57504743922245 kvar=1.3113907829907268 Phases=1
New Load.load_p12ulv36660_1 conn=wye bus1=p12ulv36660.1 kV=0.12 Vminpu=0.8 Vmaxpu=1.2 model=1 kW=0.605318582042619 kvar=0.38786447308176675 Phases=1
New Load.load_p12ulv36660_2 conn=wye bus1=p12ulv36660.2 kV=0.12 Vminpu=0.8 Vmaxpu=1.2 model=1 kW=0.605318582042619 kvar=0.38786447308176675 Phases=1
New Load.load_p12ulv36679_1 conn=wye bus1=p12ulv36679.1 kV=0.12 Vminpu=0.8 Vmaxpu=1.2 model=1 kW=1.7142625617629952 kvar=0.4166771141877461 Phases=1
New Load.load_p12ulv36679_2 conn=wye bus1=p12ulv36679.2 kV=0.12 Vminpu=0.8 Vmaxpu=1.2 model=1 kW=1.7142625617629952 kvar=0.4166771141877461 Phases=1
New Load.load_p12ulv36705_1 conn=wye bus1=p12ulv36705.1 kV=0.12 Vminpu=0.8 Vmaxpu=1.2 model=1 kW=3.991741378519742 kvar=0.22993168819558238 Phases=1
New Load.load_p12ulv36705_2 conn=wye bus1=p12ulv36705.2 kV=0.12 Vminpu=0.8 Vmaxpu=1.2 model=1 kW=3.991741378519742 kvar=0.22993168819558238 Phases=1
New Load.load_p12ulv36706_1 conn=wye bus1=p12ulv36706.1 kV=0.12 Vminpu=0.8 Vmaxpu=1.2 model=1 kW=1.2440101223346245 kvar=0.10648703060010346 Phases=1
New Load.load_p12ulv36706_2 conn=wye bus1=p12ulv36706.2 kV=0.12 Vminpu=0.8 Vmaxpu=1.2 model=1 kW=1.2440101223346245 kvar=0.10648703060010346 Phases=1
New Load.load_p12ulv36709_1 conn=wye bus1=p12ulv36709.1 kV=0.12 Vminpu=0.8 Vmaxpu=1.2 model=1 kW=2.444264033838406 kvar=0.6682307283819275 Phases=1
New Load.load_p12ulv36709_2 conn=wye bus1=p12ulv36709.2 kV=0.12 Vminpu=0.8 Vmaxpu=1.2 model=1 kW=2.444264033838406 kvar=0.6682307283819275 Phases=1
New Load.load_p12ulv36720_1 conn=wye bus1=p12ulv36720.1 kV=0.12 Vminpu=0.8 Vmaxpu=1.2 model=1 kW=0.4585094523583652 kvar=0.19519922093662737 Phases=1
New Load.load_p12ulv36720_2 conn=wye bus1=p12ulv36720.2 kV=0.12 Vminpu=0.8 Vmaxpu=1.2 model=1 kW=0.4585094523583652 kvar=0.19519922093662737 Phases=1
New Load.load_p12ulv36738_1 conn=wye bus1=p12ulv36738.1 kV=0.12 Vminpu=0.8 Vmaxpu=1.2 model=1 kW=2.929056405307655 kvar=0.6886094901448351 Phases=1
New Load.load_p12ulv36738_2 conn=wye bus1=p12ulv36738.2 kV=0.12 Vminpu=0.8 Vmaxpu=1.2 model=1 kW=2.929056405307655 kvar=0.6886094901448351 Phases=1
